code/demos/isteps_results.log
[ 0.000] Parameter config file isteps_config.json is not found. Default capacity used.
[ 0.001] iSTEPS toolkit [] @ 0XDBD4B6E0 is created.
[ 0.001] Begin Loading data from PSS/E raw file: ../cases/IEEE39_with_four_terminal_vsc.raw
[ 0.008] Done Loading data from PSS/E raw file: ../cases/IEEE39_with_four_terminal_vsc.raw
[ 0.008] Max Bus Number is 104 of VSC-BUS-104
[ 0.008] There are totally:
[ 0.008] 43 buses
[ 0.008] 10 generators
[ 0.008] 0 WT generators
[ 0.008] 0 PV units
[ 0.008] 0 energy storages
[ 0.008] 31 lines
[ 0.008] 16 transformers
[ 0.008] 4 fixed shunts
[ 0.008] 0 2T LCC HVDCs
[ 0.008] 0 VSC HVDCs
[ 0.008] 19 loads
[ 0.008] 1 areas
[ 0.008] 0 zones
[ 0.008] 0 owners
[ 0.009] Start solve powerflow with Full Newton Raphson solution.
[ 0.009] Initializing powerflow solver.
[ 0.009] Configuration of powerflow solver:
[ 0.009] Fast sin/cos/tan functions: Disabled
[ 0.009] Maximum iteration: 150
[ 0.009] Iteration accelerator: 1
[ 0.009] Allowed maximum P mismatch: 0.0001 MW
[ 0.009] Allowed maximum Q mismatch: 0.0001MVar
[ 0.009] Maximum voltage change: 999 pu
[ 0.009] Maximum angle change: 999 deg (17.4358 rad)
[ 0.009] Flat start: Enabled
[ 0.009] Transformer tap adjustment: Enabled
[ 0.009] Non-divergent solution: Disabled
[ 0.009] Var limit check: Enabled
[ 0.009] Network ordering optimization: 1
[ 0.009] Export jacobian matrix step by step: Disabled
[ 0.009] Initial bus voltage and angle are listed as follows.
[ 0.009] bus      voltage(pu) angle(deg)
[ 0.009] 1   1.000000   0.000000
[ 0.009] 2   1.000000   0.000000
[ 0.009] 3   1.000000   0.000000
[ 0.009] 4   1.000000   0.000000
[ 0.009] 5   1.000000   0.000000
[ 0.009] 6   1.000000   0.000000
[ 0.009] 7   1.000000   0.000000
[ 0.009] 8   1.000000   0.000000
[ 0.009] 9   1.000000   0.000000
[ 0.009] 10   1.000000   0.000000
[ 0.009] 11   1.000000   0.000000
[ 0.009] 12   1.000000   0.000000
[ 0.009] 13   1.000000   0.000000
[ 0.009] 14   1.000000   0.000000
[ 0.009] 15   1.000000   0.000000
[ 0.009] 16   1.000000   0.000000
[ 0.009] 17   1.000000   0.000000
[ 0.009] 18   1.000000   0.000000
[ 0.009] 19   1.000000   0.000000
[ 0.009] 20   1.000000   0.000000
[ 0.009] 21   1.000000   0.000000
[ 0.009] 22   1.000000   0.000000
[ 0.009] 23   1.000000   0.000000
[ 0.009] 24   1.000000   0.000000
[ 0.009] 25   1.000000   0.000000
[ 0.009] 26   1.000000   0.000000
[ 0.009] 27   1.000000   0.000000
[ 0.009] 28   1.000000   0.000000
[ 0.009] 29   1.000000   0.000000
[ 0.009] 30   1.047500   0.000000
[ 0.009] 31   0.982000   0.000000
[ 0.009] 32   0.983100   0.000000
[ 0.009] 33   0.997200   0.000000
[ 0.009] 34   1.012300   0.000000
[ 0.009] 35   1.049300   0.000000
[ 0.009] 36   1.063500   0.000000
[ 0.009] 37   1.027800   0.000000
[ 0.009] 38   1.026500   0.000000
[ 0.009] 39   1.030000   0.000000
[ 0.009] 101   1.000000   0.000000
[ 0.009] 102   1.000000   0.000000
[ 0.009] 103   1.000000   0.000000
[ 0.009] 104   1.000000   0.000000
[ 0.009] Network internal bus numbers are optimized.
[ 0.009] Done initializing powerflow solver.
[ 0.009] Updating powerflow P equation buses and Q equation buses.
[ 0.009] Done updating powerflow P equation buses and Q equation buses.
[ 0.010] Done building separate jacobian matrix.
[ 0.010] Iteration 0:
[ 0.010] Maximum   active power mismatch found: 812.872513 MW   at bus 38 [BUS-38].
[ 0.010] Maximum reactive power mismatch found: 812.302856 MVar at bus 19 [BUS-19].
[ 0.010] Maximum angle   change is: 0.246198 rad (14.1061 deg).
[ 0.010] Maximum voltage change is: 0.0811451 pu.
[ 0.010] Iteration 1:
[ 0.010] Maximum   active power mismatch found:  60.094198 MW   at bus 38 [BUS-38].
[ 0.010] Maximum reactive power mismatch found: 115.614192 MVar at bus 19 [BUS-19].
[ 0.011] Maximum angle   change is: 0.0642339 rad (3.68033 deg).
[ 0.011] Maximum voltage change is: 0.0326345 pu.
[ 0.011] Iteration 2:
[ 0.011] Maximum   active power mismatch found:   2.521435 MW   at bus 6 [BUS-6].
[ 0.011] Maximum reactive power mismatch found:   2.702505 MVar at bus 6 [BUS-6].
[ 0.011] Maximum angle   change is: 0.00295836 rad (0.169501 deg).
[ 0.011] Maximum voltage change is: 0.00132232 pu.
[ 0.011] Iteration 3:
[ 0.011] Maximum   active power mismatch found:   0.009915 MW   at bus 6 [BUS-6].
[ 0.011] Maximum reactive power mismatch found:   0.005475 MVar at bus 6 [BUS-6].
[ 0.012] Maximum angle   change is: 4.78835e-06 rad (0.000274352 deg).
[ 0.012] Maximum voltage change is: 2.73031e-06 pu.
[ 0.012] Iteration 4:
[ 0.012] Maximum   active power mismatch found:   0.000000 MW   at bus 6 [BUS-6].
[ 0.012] Maximum reactive power mismatch found:   0.000000 MVar at bus 6 [BUS-6].
[ 0.012] Powerflow converged within 4 iterations.
[ 0.012] There are 1 islands.
[ 0.012] Island 0:
[ 0.012] Areas in island 0:
[ 0.012] (  1) 1 [1]
[ 0.012] Physical buses in island 0:
[ 0.012] 102 [VSC-BUS-102  100kV] AREA 1[1]
[ 0.012] 4 [BUS-4  100kV] AREA 1[1]
[ 0.012] 5 [BUS-5  100kV] AREA 1[1]
[ 0.012] 8 [BUS-8  100kV] AREA 1[1]
[ 0.012] 6 [BUS-6  100kV] AREA 1[1]
[ 0.012] 9 [BUS-9  100kV] AREA 1[1]
[ 0.012] 7 [BUS-7  100kV] AREA 1[1]
[ 0.012] 31 [BUS-31  100kV] AREA 1[1] (Slack bus)
[ 0.012] 11 [BUS-11  100kV] AREA 1[1]
[ 0.012] 39 [BUS-39  100kV] AREA 1[1]
[ 0.012] 10 [BUS-10  100kV] AREA 1[1]
[ 0.012] 12 [BUS-12  100kV] AREA 1[1]
[ 0.012] 1 [BUS-1  100kV] AREA 1[1]
[ 0.012] 32 [BUS-32  100kV] AREA 1[1]
[ 0.012] 13 [BUS-13  100kV] AREA 1[1]
[ 0.012] 2 [BUS-2  100kV] AREA 1[1]
[ 0.012] 14 [BUS-14  100kV] AREA 1[1]
[ 0.012] 3 [BUS-3  100kV] AREA 1[1]
[ 0.012] 30 [BUS-30  100kV] AREA 1[1]
[ 0.012] 25 [BUS-25  100kV] AREA 1[1]
[ 0.012] 103 [VSC-BUS-103  100kV] AREA 1[1]
[ 0.012] 15 [BUS-15  100kV] AREA 1[1]
[ 0.012] 101 [VSC-BUS-101  100kV] AREA 1[1]
[ 0.012] 37 [BUS-37  100kV] AREA 1[1]
[ 0.012] 26 [BUS-26  100kV] AREA 1[1]
[ 0.012] 16 [BUS-16  100kV] AREA 1[1]
[ 0.012] 27 [BUS-27  100kV] AREA 1[1]
[ 0.012] 28 [BUS-28  100kV] AREA 1[1]
[ 0.012] 29 [BUS-29  100kV] AREA 1[1]
[ 0.012] 19 [BUS-19  100kV] AREA 1[1]
[ 0.012] 21 [BUS-21  100kV] AREA 1[1]
[ 0.012] 24 [BUS-24  100kV] AREA 1[1]
[ 0.012] 17 [BUS-17  100kV] AREA 1[1]
[ 0.012] 38 [BUS-38  100kV] AREA 1[1]
[ 0.012] 20 [BUS-20  100kV] AREA 1[1]
[ 0.012] 33 [BUS-33  100kV] AREA 1[1]
[ 0.012] 22 [BUS-22  100kV] AREA 1[1]
[ 0.012] 23 [BUS-23  100kV] AREA 1[1]
[ 0.012] 18 [BUS-18  100kV] AREA 1[1]
[ 0.012] 34 [BUS-34  100kV] AREA 1[1]
[ 0.012] 35 [BUS-35  100kV] AREA 1[1]
[ 0.012] 36 [BUS-36  100kV] AREA 1[1]
[ 0.012] 104 [VSC-BUS-104  100kV] AREA 1[1]
[ 0.012] /nNetwork Y matrix lists begin:
[ 0.012] row   [  bus  ]  column[  bus  ]     real       imaginary
[ 0.012] 0[    102]       0[    102]    0.000000, -49.850000
[ 0.012] 1[      4]       0[    102]   -0.000000,  50.000000
[ 0.012] 0[    102]       1[      4]   -0.000000,  50.000000
[ 0.012] 1[      4]       1[      4]    4.863813, -127.753912
[ 0.012] 3[      5]       1[      4]   -4.863813,  77.821012
[ 0.012] 2[     31]       2[     31]    0.000000, -40.000000
[ 0.012] 42[      6]       2[     31]   -0.000000,  37.383178
[ 0.012] 1[      4]       3[      5]   -4.863813,  77.821012
[ 0.012] 3[      5]       3[      5]   40.620756, -548.843840
[ 0.012] 41[      8]       3[      5]   -6.345178,  88.832487
[ 0.012] 42[      6]       3[      5]  -29.411765, 382.352941
[ 0.012] 4[     32]       4[     32]    0.000000, -50.000000
[ 0.012] 5[     10]       4[     32]   -0.000000,  46.728972
[ 0.012] 4[     32]       5[     10]   -0.000000,  46.728972
[ 0.012] 5[     10]       5[     10]   42.895442, -504.725042
[ 0.012] 38[     13]       5[     10]  -21.447721, 230.563003
[ 0.012] 39[     11]       5[     10]  -21.447721, 230.563003
[ 0.012] 6[     12]       6[     12]    1.668739, -45.368835
[ 0.012] 38[     13]       6[     12]   -0.839376,  22.820524
[ 0.012] 39[     11]       6[     12]   -0.839376,  22.820524
[ 0.012] 7[    101]       7[    101]    0.000000, -19.900000
[ 0.012] 8[      3]       7[    101]   -0.000000,  18.181818
[ 0.012] 7[    101]       8[      3]   -0.000000,  18.181818
[ 0.012] 8[      3]       8[      3]    5.659556, -82.138245
[ 0.012] 11[      2]       8[      3]   -5.659556,  65.737919
[ 0.012] 9[     30]       9[     30]    0.000000, -55.248619
[ 0.012] 11[      2]       9[     30]   -0.000000,  53.901091
[ 0.012] 10[     37]      10[     37]    1.113999, -43.074638
[ 0.012] 12[     25]      10[     37]   -1.086829,  42.024037
[ 0.012] 8[      3]      11[      2]   -5.659556,  65.737919
[ 0.012] 9[     30]      11[      2]   -0.000000,  53.901091
[ 0.012] 11[      2]      11[      2]   64.645695, -211.870569
[ 0.012] 12[     25]      11[      2]  -56.929083,  69.941444
[ 0.012] 13[      1]      11[      2]   -2.057057,  24.155725
[ 0.012] 10[     37]      12[     25]   -1.086829,  42.024037
[ 0.012] 11[      2]      12[     25]  -56.929083,  69.941444
[ 0.012] 12[     25]      12[     25]   61.026811, -141.269838
[ 0.012] 37[     26]      12[     25]   -3.037408,  30.658833
[ 0.012] 11[      2]      13[      1]   -2.057057,  24.155725
[ 0.012] 13[      1]      13[      1]    3.654501, -63.367477
[ 0.012] 14[     39]      13[      1]   -1.597444,  39.936102
[ 0.012] 13[      1]      14[     39]   -1.597444,  39.936102
[ 0.012] 14[     39]      14[     39]    3.194888, -78.897204
[ 0.012] 15[      9]      14[     39]   -1.597444,  39.936102
[ 0.012] 14[     39]      15[      9]   -1.597444,  39.936102
[ 0.012] 15[      9]      15[      9]    3.335944, -66.583959
[ 0.012] 41[      8]      15[      9]   -1.738499,  27.438057
[ 0.012] 16[    104]      16[    104]    0.000000, -19.900000
[ 0.012] 17[     18]      16[    104]   -0.000000,  20.000000
[ 0.012] 16[    104]      17[     18]   -0.000000,  20.000000
[ 0.012] 17[     18]      17[     18]   10.335154, -141.003000
[ 0.012] 32[     17]      17[     18]  -10.335154, 121.068950
[ 0.012] 18[     34]      18[     34]    2.770851, -55.417013
[ 0.012] 19[     20]      18[     34]   -2.746135,  54.922709
[ 0.012] 18[     34]      19[     20]   -2.746135,  54.922709
[ 0.012] 19[     20]      19[     20]    6.387906, -126.710611
[ 0.012] 21[     19]      19[     20]   -3.458741,  68.186602
[ 0.012] 20[     33]      20[     33]    3.463118, -70.251818
[ 0.012] 21[     19]      20[     33]   -3.236559,  65.655905
[ 0.012] 19[     20]      21[     19]   -3.458741,  68.186602
[ 0.012] 20[     33]      21[     19]   -3.236559,  65.655905
[ 0.013] 21[     19]      21[     19]   10.467403, -176.474750
[ 0.013] 28[     16]      21[     19]   -4.179619,  50.939108
[ 0.013] 22[     35]      22[     35]    0.000000, -69.930070
[ 0.013] 24[     22]      22[     35]   -0.000000,  68.224458
[ 0.013] 23[     36]      23[     36]    0.675594, -36.752287
[ 0.013] 27[     23]      23[     36]   -0.675594,  36.752287
[ 0.013] 22[     35]      24[     22]   -0.000000,  68.224458
[ 0.013] 24[     22]      24[     22]   10.553433, -241.297341
[ 0.013] 25[     21]      24[     22]   -4.068348,  71.196094
[ 0.013] 27[     23]      24[     22]   -6.485084, 103.761349
[ 0.013] 24[     22]      25[     21]   -4.068348,  71.196094
[ 0.013] 25[     21]      25[     21]    8.442562, -144.755306
[ 0.013] 28[     16]      25[     21]   -4.374214,  73.814861
[ 0.013] 26[     24]      26[     24]   10.384839, -197.298928
[ 0.013] 27[     23]      26[     24]   -1.788851,  28.458987
[ 0.013] 28[     16]      26[     24]   -8.595989, 169.054441
[ 0.013] 23[     36]      27[     23]   -0.675594,  36.752287
[ 0.013] 24[     22]      27[     23]   -6.485084, 103.761349
[ 0.013] 26[     24]      27[     23]   -1.788851,  28.458987
[ 0.013] 27[     23]      27[     23]    8.949528, -168.699822
[ 0.013] 21[     19]      28[     16]   -4.179619,  50.939108
[ 0.013] 25[     21]      28[     16]   -4.374214,  73.814861
[ 0.013] 26[     24]      28[     16]   -8.595989, 169.054441
[ 0.013] 28[     16]      28[     16]   36.025838, -510.427789
[ 0.013] 30[     15]      28[     16]  -10.093081, 105.416620
[ 0.013] 32[     17]      28[     16]   -8.782936, 111.668758
[ 0.013] 29[    103]      29[    103]    0.000000, -49.500000
[ 0.013] 31[     14]      29[    103]   -0.000000,  48.780488
[ 0.013] 28[     16]      30[     15]  -10.093081, 105.416620
[ 0.013] 30[     15]      30[     15]   13.889508, -150.916158
[ 0.013] 31[     14]      30[     15]   -3.796427,  45.768038
[ 0.013] 29[    103]      31[     14]   -0.000000,  48.780488
[ 0.013] 30[     15]      31[     14]   -3.796427,  45.768038
[ 0.013] 31[     14]      31[     14]   12.549588, -191.319524
[ 0.013] 38[     13]      31[     14]   -8.753161,  98.229916
[ 0.013] 17[     18]      32[     17]  -10.335154, 121.068950
[ 0.013] 28[     16]      32[     17]   -8.782936, 111.668758
[ 0.013] 32[     17]      32[     17]   23.437314, -289.922760
[ 0.013] 33[     27]      32[     17]   -4.319224,  57.478902
[ 0.013] 32[     17]      33[     27]   -4.319224,  57.478902
[ 0.013] 33[     27]      33[     27]   10.739770, -124.614033
[ 0.013] 37[     26]      33[     27]   -6.420546,  67.415730
[ 0.013] 34[     38]      34[     38]    3.278689, -63.934426
[ 0.013] 36[     29]      34[     38]   -3.198721,  62.375050
[ 0.013] 35[     28]      35[     28]    7.985996, -86.070981
[ 0.013] 36[     29]      35[     28]   -6.087751,  65.660738
[ 0.013] 37[     26]      35[     28]   -1.898245,  20.924843
[ 0.013] 34[     38]      36[     29]   -3.198721,  62.375050
[ 0.013] 35[     28]      36[     29]   -6.087751,  65.660738
[ 0.013] 36[     29]      36[     29]   10.655617, -141.743464
[ 0.013] 37[     26]      36[     29]   -1.447163,  15.868019
[ 0.013] 12[     25]      37[     26]   -3.037408,  30.658833
[ 0.013] 33[     27]      37[     26]   -6.420546,  67.415730
[ 0.013] 35[     28]      37[     26]   -1.898245,  20.924843
[ 0.013] 36[     29]      37[     26]   -1.447163,  15.868019
[ 0.013] 37[     26]      37[     26]   12.803362, -133.586524
[ 0.013] 5[     10]      38[     13]  -21.447721, 230.563003
[ 0.013] 6[     12]      38[     13]   -0.839376,  22.820524
[ 0.013] 31[     14]      38[     13]   -8.753161,  98.229916
[ 0.013] 38[     13]      38[     13]   31.045294, -351.627766
[ 0.013] 5[     10]      39[     11]  -21.447721, 230.563003
[ 0.013] 6[     12]      39[     11]   -0.839376,  22.820524
[ 0.013] 39[     11]      39[     11]   32.627287, -374.483500
[ 0.013] 42[      6]      39[     11]  -10.335154, 121.068950
[ 0.013] 40[      7]      40[      7]   25.820550, -323.899644
[ 0.013] 41[      8]      40[      7]  -18.761726, 215.759850
[ 0.013] 42[      6]      40[      7]   -7.058824, 108.235294
[ 0.013] 3[      5]      41[      8]   -6.345178,  88.832487
[ 0.013] 15[      9]      41[      8]   -1.738499,  27.438057
[ 0.013] 40[      7]      41[      8]  -18.761726, 215.759850
[ 0.013] 41[      8]      41[      8]   26.845403, -331.727394
[ 0.013] 2[     31]      42[      6]   -0.000000,  37.383178
[ 0.013] 3[      5]      42[      6]  -29.411765, 382.352941
[ 0.013] 39[     11]      42[      6]  -10.335154, 121.068950
[ 0.013] 40[      7]      42[      6]   -7.058824, 108.235294
[ 0.013] 42[      6]      42[      6]   46.805743, -646.447085
[ 0.013] Network Y matrix listing finished.
[ 0.014] Done building separate jacobian matrix.
[ 0.019] iSTEPS simulation toolkit [] @ 0XDBD4B6E0 is deleted.
